test/resources/VscRoundTripRef.xml
<?xml version="1.0" encoding="UTF-8"?>
<iidm:network xmlns:iidm="http://www.itesla_project.eu/schema/iidm/1_0" id="hvdctest" caseDate="2016-06-27T16:34:55.930000+02:00" forecastDistance="0" sourceFormat="test">
    <iidm:substation id="S1" country="FR">
        <iidm:voltageLevel id="VL1" nominalV="400" topologyKind="BUS_BREAKER">
            <iidm:busBreakerTopology>
                <iidm:bus id="B1"/>
            </iidm:busBreakerTopology>
            <iidm:vscConverterStation id="C1" name="Converter1" voltageRegulatorOn="true" lossFactor="0.010999999940395355" voltageSetpoint="405" bus="B1" connectableBus="B1" p="100" q="50">
                <iidm:reactiveCapabilityCurve>
                    <iidm:point p="5" minQ="0" maxQ="10"/>
                    <iidm:point p="10" minQ="0" maxQ="10"/>
                </iidm:reactiveCapabilityCurve>
            </iidm:vscConverterStation>
        </iidm:voltageLevel>
    </iidm:substation>
    <iidm:substation id="S2" country="FR">
        <iidm:voltageLevel id="VL2" nominalV="400" topologyKind="NODE_BREAKER">
            <iidm:nodeBreakerTopology nodeCount="3">
                <iidm:busbarSection id="BBS1" name="BusbarSection" node="0"/>
                <iidm:switch id="DISC_BBS1_BK1" name="Disconnector" kind="DISCONNECTOR" retained="false" open="false" node1="0" node2="1"/>
                <iidm:switch id="BK1" name="Breaker" kind="BREAKER" retained="true" open="false" node1="1" node2="2"/>
            </iidm:nodeBreakerTopology>
            <iidm:vscConverterStation id="C2" name="Converter2" voltageRegulatorOn="false" lossFactor="0.010999999999999999" reactivePowerSetpoint="123" node="2">
                <iidm:minMaxReactiveLimits minQ="0" maxQ="10"/>
            </iidm:vscConverterStation>
        </iidm:voltageLevel>
    </iidm:substation>
    <iidm:hvdcLine id="L" name="HVDC" r="1" nominalV="400" convertersMode="SIDE_1_INVERTER_SIDE_2_RECTIFIER" activePowerSetpoint="280" maxP="300" converterStation1="C1" converterStation2="C2"/>
</iidm:network>
